Version 4
SHEET 1 880 680
WIRE -400 -240 -624 -240
WIRE -176 -240 -240 -240
WIRE -48 -240 -112 -240
WIRE -16 -240 -48 -240
WIRE 96 -240 64 -240
WIRE 224 -240 208 -240
WIRE 304 -240 288 -240
WIRE -400 -176 -400 -240
WIRE -240 -176 -240 -240
WIRE -48 -176 -48 -240
WIRE -624 -160 -624 -240
WIRE 144 -144 144 -176
WIRE -624 -32 -624 -80
WIRE -400 -32 -400 -96
WIRE -400 -32 -624 -32
WIRE -240 -32 -240 -96
WIRE -176 -32 -240 -32
WIRE -48 -32 -48 -112
WIRE -48 -32 -112 -32
FLAG -400 -32 0
FLAG -240 -32 0
FLAG -48 -32 0
FLAG 304 -240 0
SYMBOL voltage -624 -176 R0
WINDOW 3 2 232 Left 2
WINDOW 123 0 0 Left 0
WINDOW 39 5 187 Left 2
SYMATTR Value SINE(0 110 60)
SYMATTR SpiceLine Rser=1
SYMATTR InstName V1
SYMBOL ind2 -416 -192 R0
SYMATTR InstName L1
SYMATTR Value 49
SYMBOL ind2 -224 -192 M0
SYMATTR InstName L2
SYMATTR Value 1
SYMBOL zener -176 -224 R270
WINDOW 0 32 32 VTop 2
WINDOW 3 0 32 VBottom 2
SYMATTR InstName D1
SYMATTR Value DFLZ33
SYMATTR Description Diode
SYMATTR Type diode
SYMBOL zener -112 -48 R90
WINDOW 0 0 32 VBottom 2
WINDOW 3 32 32 VTop 2
SYMATTR InstName D2
SYMATTR Value DFLZ33
SYMATTR Description Diode
SYMATTR Type diode
SYMBOL cap -64 -176 R0
SYMATTR InstName C1
SYMATTR Value 110µ
SYMBOL pot 112 -224 R270
SYMATTR InstName X1
SYMATTR SpiceLine R=120 Val={slider}
SYMBOL current -16 -240 R270
WINDOW 0 32 40 VTop 2
WINDOW 3 -32 40 VBottom 2
WINDOW 123 4 40 VTop 2
WINDOW 39 0 0 Left 0
SYMATTR InstName I1
SYMATTR Value 100m
SYMBOL LED 224 -224 R270
WINDOW 0 72 32 VTop 2
WINDOW 3 0 32 VBottom 2
SYMATTR InstName D3
SYMATTR Value W5AP-LZMZ-5K8L
TEXT -624 -272 Left 2 !K1 L1 L2 1.
TEXT -424 16 Left 2 !.tran 0 50m 0 16u
TEXT -8 -336 Left 2 !.step param slider 0 75 10
